%chk=vinyl-alcohol.chk
%nproc=4
# hf/6-31g(d) geom=connectivity

Title Card Required

0 1
 C              
 C                  1    1.32591600
 O                  2    1.43000000    1  122.71797969
 H                  3    0.96000000    2  109.49999986    1  D1              0
 H                  1    1.09826653    2  122.71594253    3  0.00161203      0
 H                  1    1.09826310    2  122.71797992    5  179.99863584    0
 H                  2    1.09826653    1  122.71594252    6    0.00000000    0

   D1     -180.000

 1 2 2.0 5 1.0 6 1.0
 2 7 1.0 3 1.0
 3 4 1.0
 4
 5
 6
 7

